Version 4
SHEET 1 880 972
WIRE -336 368 -416 368
WIRE 64 368 -336 368
WIRE 128 368 64 368
WIRE 368 384 288 384
WIRE -304 400 -416 400
WIRE 32 400 -304 400
WIRE 128 400 32 400
WIRE 64 544 64 368
WIRE 128 544 64 544
WIRE 368 560 288 560
WIRE -304 576 -304 400
WIRE -256 576 -304 576
WIRE -32 576 -112 576
WIRE 128 576 -32 576
WIRE -336 720 -336 368
WIRE -256 720 -336 720
WIRE -240 720 -256 720
WIRE 0 720 -112 720
WIRE 128 720 0 720
WIRE 368 736 288 736
WIRE 32 752 32 400
WIRE 128 752 32 752
WIRE 0 896 0 720
WIRE 128 896 0 896
WIRE 368 912 288 912
WIRE -32 928 -32 576
WIRE 128 928 -32 928
FLAG -416 368 a
FLAG -416 400 e
FLAG 368 384 a_e
FLAG 368 560 a_eb
FLAG 368 736 ab_e
FLAG 368 912 ab_eb
FLAG -32 576 eb
FLAG 0 720 ab
SYMBOL inv -160 576 R0
SYMATTR InstName X1
SYMBOL inv -160 720 R0
SYMATTR InstName X2
SYMBOL FD_AND 192 384 R0
SYMATTR InstName X3
SYMBOL FD_AND 192 560 R0
SYMATTR InstName X4
SYMBOL FD_AND 192 736 R0
SYMATTR InstName X5
SYMBOL FD_AND 192 912 R0
SYMATTR InstName X6
TEXT -336 200 Left 2 ;HW4 Fig3 2 Input Decoder
TEXT -336 240 Left 2 ;2 stage Domino AND Decoder 8x8=64
