Version 4
SHEET 1 880 972
WIRE -336 368 -416 368
WIRE 64 368 -336 368
WIRE 128 368 64 368
WIRE 368 384 288 384
WIRE -304 400 -416 400
WIRE 128 400 -304 400
WIRE 64 544 64 368
WIRE 128 544 64 544
WIRE 368 560 288 560
WIRE -304 576 -304 400
WIRE -256 576 -304 576
WIRE 16 576 -112 576
WIRE 128 576 16 576
WIRE -336 720 -336 368
WIRE -256 720 -336 720
WIRE -240 720 -256 720
WIRE 64 720 -112 720
WIRE 128 720 64 720
WIRE 368 736 288 736
WIRE 64 896 64 720
WIRE 128 896 64 896
WIRE 368 912 288 912
WIRE 16 928 16 576
WIRE 128 928 16 928
FLAG -416 368 a
FLAG -416 400 e
FLAG 368 384 a_e
FLAG 368 560 a_eb
FLAG 368 736 ab_e
FLAG 368 912 ab_eb
FLAG 16 576 eb
FLAG 64 720 ab
SYMBOL inv -160 576 R0
SYMATTR InstName X1
SYMBOL inv -160 720 R0
SYMATTR InstName X2
SYMBOL FD_AND 192 384 R0
SYMATTR InstName X3
SYMBOL FD_AND 192 560 R0
SYMATTR InstName X4
SYMBOL FD_AND 192 736 R0
SYMATTR InstName X5
SYMBOL FD_AND 192 912 R0
SYMATTR InstName X6
TEXT 168 384 Left 2 ;FDAND
TEXT 48 192 Left 2 ;HW4 Fig3 2 Input Decoder
TEXT 168 560 Left 2 ;FDAND
TEXT 168 736 Left 2 ;FDAND
TEXT 168 912 Left 2 ;FDAND
TEXT 128 232 Left 2 ;DECODER2
