Version 4
SHEET 1 1140 680
WIRE 208 -128 208 -160
WIRE 688 -128 688 -160
WIRE 160 -48 112 -48
WIRE 640 -48 592 -48
WIRE 208 16 208 -32
WIRE 208 16 -128 16
WIRE 240 16 208 16
WIRE 304 16 240 16
WIRE 544 16 448 16
WIRE 592 16 544 16
WIRE 688 16 688 -32
WIRE 752 16 688 16
WIRE -128 64 -128 16
WIRE 208 64 208 16
WIRE 688 64 688 16
WIRE -176 144 -224 144
WIRE 160 144 112 144
WIRE 592 144 592 16
WIRE 640 144 592 144
WIRE -128 208 -128 160
WIRE 208 208 208 160
WIRE 208 208 -128 208
WIRE 208 256 208 208
WIRE 688 256 688 160
FLAG 112 -48 ck
FLAG 112 144 a
FLAG -224 144 b
FLAG 208 -160 VDD
FLAG 208 256 0
FLAG 240 16 w
FLAG 544 16 w1
FLAG 688 256 0
FLAG 592 -48 ck
FLAG 688 -160 VDD
FLAG 752 16 x
SYMBOL nmos4 -176 64 R0
SYMATTR InstName MN2
SYMBOL nmos4 160 64 R0
SYMATTR InstName MN1
SYMBOL pmos4 160 -128 R0
SYMATTR InstName MP1
SYMBOL inv 400 16 R0
SYMATTR InstName X1
SYMBOL pmos4 640 -128 R0
SYMATTR InstName MPI1
SYMBOL nmos4 640 64 R0
SYMATTR InstName MNI1
TEXT 200 -256 Left 2 ;Unfooted Domino NOR
TEXT 216 -128 Left 2 ;W=250n L=270n M=1
TEXT 216 64 Left 2 ;W=250n L=900n M=1
TEXT -120 64 Left 2 ;W=250n L=900n M=1
TEXT 336 -24 Left 2 ;M=4
TEXT 696 -128 Left 2 ;W=250n L=270n M=16
TEXT 696 64 Left 2 ;W=250n L=900n M=16
